data/bench3.raw
0,   100.00          / PSS/E-30.0    THU, JUN 02 2011  12:51
 POWER TECHNOLOGIES STANDARD BENCHMARK CASE
 1648 BUSES, 2602 BRANCHES
     1,'XXACAOCC    ',   0.0000,1,     0.000,     0.000,   1,   1,1.02586,  19.1725,   1
     2,'XXAXCCOA    ',   0.0000,1,     0.000,     0.000,   1,   1,0.98805,  13.0383,   1
     3,'XXOOYOAO    ',   0.0000,1,     0.000,     0.000,   1,   1,1.01993,  14.5083,   1
     4,'XXACCCCC    ',   0.0000,2,     0.000,     0.000,   1,   1,1.00145,   8.1565,   1
     5,'XXCAOOOO    ',   0.0000,1,     0.000,     0.000,   1,   1,0.99628,   2.9486,   1
     6,'XXACACAO    ',   0.0000,2,     0.000,     0.000,   1,   1,1.03000,   5.1056,   1
     7,'XXCOOOAO    ',   0.0000,1,     0.000,     0.000,   1,   1,1.00572,   5.3678,   1
     8,'XXAAOCAO    ',   0.0000,1,     0.000,     0.000,   1,   1,1.01413,   7.7940,   1
     9,'XXACACAO    ',   0.0000,1,     0.000,     0.000,   1,   1,1.00493,   5.6597,   1
    10,'XXAAOCAO    ',   0.0000,1,     0.000,     0.000,   1,   1,1.02249,   4.7072,   1
    11,'XXCOOOAO    ',   0.0000,1,     0.000,     0.000,   1,   1,1.02432,   3.7644,   1
    12,'XXCOOYCC    ',   0.0000,1,     0.000,     0.000,   1,   1,1.01764,   2.1019,   1
    13,'XXCOOYCC    ',   0.0000,1,     0.000,     0.000,   1,   1,0.99609,   2.9283,   1
    14,'XXAAOCOA    ',   0.0000,1,     0.000,     0.000,   1,   1,0.99738,   2.9193,   1
    15,'XXAAOCOA    ',   0.0000,2,     0.000,     0.000,   1,   1,1.02576,   2.0357,   1
    16,'XXOOOCAO    ',   0.0000,1,     0.000,     0.000,   1,   1,0.99690,   3.0574,   1
    17,'XXAXCCOA    ',   0.0000,1,     0.000,     0.000,   1,   1,1.02286,  16.2665,   1
    18,'XXCCAAOO    ',   0.0000,2,     0.000,     0.000,   1,   1,0.98263,   8.4413,   1
    19,'XXOOOOOC    ',   0.0000,1,     0.000,     0.000,   1,   1,1.00693,  14.7143,   1
    20,'XXOOOCAO    ',   0.0000,1,     0.000,     0.000,   1,   1,0.99677,   5.4517,   1
    21,'XXAAAOOC    ',   0.0000,2,     0.000,     0.000,   1,   1,1.00799,   6.5740,   1
    22,'XXCACOCA    ',   0.0000,1,     0.000,     0.000,   2,   1,0.97672,   5.2465,   1
    23,'XXCACOCA    ',   0.0000,1,     0.000,     0.000,   2,   1,1.00290,   3.7381,   1
    24,'XXCAAOAO    ',   0.0000,1,     0.000,     0.000,   2,   1,0.97984,   6.5639,   1
    25,'XXCCAAAC    ',   0.0000,1,     0.000,     0.000,   2,   1,1.02964,  12.4634,   1
    26,'XXOACACC    ',   0.0000,2,     0.000,     0.000,   2,   1,1.05000,  13.3079,   1
    27,'XXOAAOOA    ',   0.0000,2,     0.000,     0.000,   2,   1,1.05000,   5.9273,   1
    28,'XXCOOOCC    ',   0.0000,2,     0.000,     0.000,   2,   1,0.98736,   1.9457,   1
    29,'XXOAOOCA    ',   0.0000,1,     0.000,     0.000,   2,   1,1.02297,  10.7477,   1
    30,'XXAYOOOC    ',   0.0000,1,     0.000,     0.000,   2,   1,1.02299,  10.9986,   1
    31,'XXCCOAOA    ',   0.0000,1,     0.000,     0.000,   2,   1,1.02536,  10.9468,   1
    32,'XXCCOAOA    ',   0.0000,1,     0.000,     0.000,   2,   1,1.04281,  10.4999,   1
    33,'XXCCOACO    ',   0.0000,1,     0.000,     0.000,   2,   1,0.99862,  11.9607,   1
    34,'XXCCOACO    ',   0.0000,1,     0.000,     0.000,   2,   1,1.01838,   9.7256,   1
    35,'XXOOACCC    ',   0.0000,1,     0.000,     0.000,   2,   1,1.00853,   1.4406,   1
    36,'XXACAOCA    ',   0.0000,1,     0.000,     0.000,   2,   1,1.00871,   2.4136,   1
    37,'XXCAOCCC    ',   0.0000,1,     0.000,     0.000,   2,   1,1.01967,   8.2655,   1
    38,'XXCAOCCC    ',   0.0000,1,     0.000,     0.000,   2,   1,1.03112,   8.1926,   1
    39,'XXAAOCOO    ',   0.0000,1,     0.000,     0.000,   2,   1,1.01716,   9.0716,   1
    40,'XXAAOCOO    ',   0.0000,1,     0.000,     0.000,   2,   1,1.04374,   8.4387,   1
    41,'XXCAOOOC    ',   0.0000,2,     0.000,     0.000,   2,   1,1.03000,  15.1445,   1
    42,'XXCAOOOC    ',   0.0000,1,     0.000,     0.000,   2,   1,1.02568,  13.2575,   1
    43,'XXOOCAAO    ',   0.0000,1,     0.000,     0.000,   2,   1,1.05312,  12.9929,   1
    44,'XXXAOCAA    ',   0.0000,2,     0.000,     0.000,   2,   1,1.05000,  12.0544,   1
    45,'XXCCOACC    ',   0.0000,1,     0.000,     0.000,   2,   1,1.02991,  12.8523,   1
    46,'XXOCAOOO    ',   0.0000,1,     0.000,     0.000,   2,   1,1.05088,  12.3653,   1
    47,'XXOCOCOC    ',   0.0000,1,     0.000,     0.000,   2,   1,0.99458,   2.3710,   1
    48,'XXCAOCOC    ',   0.0000,1,     0.000,     0.000,   2,   1,1.00838,   7.6494,   1
    49,'XXAA.COA    ',   0.0000,1,     0.000,     0.000,   2,   1,1.05141,  12.3024,   1
    50,'XXCOOACC    ',   0.0000,1,     0.000,     0.000,   2,   1,1.00932,   7.8549,   1
    51,'XXCOCOCC    ',   0.0000,2,     0.000,     0.000,   3,   1,1.03000,  16.9918,   1
    52,'XXCOAOCC    ',   0.0000,1,     0.000,     0.000,   3,   1,0.98623,  13.0961,   1
    53,'XXCAOCCC    ',   0.0000,2,     0.000,     0.000,   3,   1,1.01467,  13.4586,   1
    54,'XXC.OOOO    ',   0.0000,2,     0.000,     0.000,   3,   1,1.01134,   9.9230,   1
    55,'XXC.OOOO    ',   0.0000,1,     0.000,     0.000,   3,   1,1.01680,  11.8737,   1
    56,'XXC.OOOO    ',   0.0000,2,     0.000,     0.000,   3,   1,1.02230,   6.2042,   1
    57,'XXOAYCCA    ',   0.0000,2,     0.000,     0.000,   3,   1,1.00932,   4.5269,   1
    58,'XXOAOOOA    ',   0.0000,2,     0.000,     0.000,   3,   1,0.98838,   5.4243,   1
    59,'XXOCAAOO    ',   0.0000,1,     0.000,     0.000,   4,   1,1.01278,   4.9646,   1
    60,'XXOCAAOO    ',   0.0000,1,     0.000,     0.000,   4,   1,1.02044,   3.6872,   1
    61,'XXOCAAOO    ',   0.0000,1,     0.000,     0.000,   4,   1,0.99185,   3.9327,   1
    62,'XXCCOOCA    ',   0.0000,1,     0.000,     0.000,   4,   1,1.02238,  14.6670,   1
    63,'XXCAOCAO    ',   0.0000,2,     0.000,     0.000,   4,   1,1.03000,  15.6742,   1
    64,'XXCCCOCY    ',   0.0000,1,     0.000,     0.000,   4,   1,1.00956,  13.4280,   1
    65,'XXCOAOAO    ',   0.0000,1,     0.000,     0.000,   4,   1,0.99592,   4.5627,   1
    66,'XXCACAAO    ',   0.0000,1,     0.000,     0.000,   4,   1,1.00522,   7.5400,   1
    67,'XXACOCOO    ',   0.0000,1,     0.000,     0.000,   4,   1,0.99120,  11.7111,   1
    68,'XXCACCOA    ',   0.0000,1,     0.000,     0.000,   4,   1,0.99622,   6.2706,   1
    69,'XXACOCOO    ',   0.0000,2,     0.000,     0.000,   4,   1,1.01059,   8.3306,   1
    70,'XXAAOOCA    ',   0.0000,1,     0.000,     0.000,   4,   1,0.99478,   6.9261,   1
    71,'XXCOOOOA    ',   0.0000,1,     0.000,     0.000,   4,   1,0.99420,  13.7630,   1
    72,'XXAAACOA    ',   0.0000,1,     0.000,     0.000,   4,   1,1.02820,   6.9861,   1
    73,'XXOACAOC    ',   0.0000,1,     0.000,     0.000,   4,   1,1.01860,   8.9525,   1
    74,'XXOOAOAC    ',   0.0000,1,     0.000,     0.000,   4,   1,1.01064,  11.3847,   1
    75,'XXOOAOAC    ',   0.0000,1,     0.000,     0.000,   4,   1,0.99725,   9.6934,   1
    76,'XXOOOOAC    ',   0.0000,1,     0.000,  -100.000,   5,   1,1.02488,  13.3904,   1
    77,'XXOOOOAC    ',   0.0000,1,     0.000,     0.000,   5,   1,1.04082,  11.4085,   1
    78,'XXOOOOAC    ',   0.0000,1,     0.000,     0.000,   5,   1,1.03853,   9.0456,   1
    79,'XXC.OOOO    ',   0.0000,2,     0.000,     0.000,   5,   1,1.03043,  11.3128,   1
    80,'XXCCAOOA    ',   0.0000,2,     0.000,     0.000,   5,   1,1.02798,  11.2531,   1
    81,'XXACOCOA    ',   0.0000,2,     0.000,     0.000,   5,   1,1.02000,   9.8193,   1
    82,'XXOAACAO    ',   0.0000,1,     0.000,     0.000,   5,   1,1.01392,  10.7521,   1
    83,'XXCA.COC    ',   0.0000,1,     0.000,     0.000,   5,   1,0.99548,   3.6108,   1
    84,'XXAOAAOC    ',   0.0000,2,     0.000,     0.000,   5,   1,1.02988,  11.0372,   1
    85,'XXCCOOOO    ',   0.0000,1,     0.000,     0.000,   5,   1,1.03641,  12.5969,   1
    86,'XXOAACCC    ',   0.0000,2,     0.000,     0.000,   5,   1,1.03000,  13.8661,   1
    87,'XXCAOOAA    ',   0.0000,1,     0.000,     0.000,   5,   1,1.03345,  12.6879,   1
    88,'XXACAACX    ',   0.0000,1,     0.000,     0.000,   5,   1,1.02987,  10.9192,   1
    89,'CXOCOOAO    ',   0.0000,1,     0.000,     0.000,   6,   1,1.03159,  24.6020,   1
    90,'CXACOACY    ',   0.0000,1,     0.000,     0.000,   6,   1,1.03640,  26.6645,   1
    91,'CXOAAOAO    ',   0.0000,2,     0.000,     0.000,   6,   1,1.05064,  27.8074,   1
    92,'CXCOAOCO    ',   0.0000,1,     0.000,     0.000,   6,   1,1.02900,  26.1971,   1
    93,'CXCCOCYC    ',   0.0000,1,     0.000,     0.000,   6,   1,1.01613,  19.8010,   1
    94,'CXACOOCA    ',   0.0000,1,     0.000,     0.000,   6,   1,1.03025,  21.2913,   1
    95,'CXCACOAC    ',   0.0000,1,     0.000,     0.000,   6,   1,0.99877,  15.2831,   1
    96,'CXCCACAC    ',   0.0000,2,     0.000,     0.000,   6,   1,1.03000,  18.7152,   1
    97,'CXCCACAC    ',   0.0000,1,     0.000,     0.000,   6,   1,1.02702,  18.7832,   1
    98,'CXCACACO    ',   0.0000,2,     0.000,     0.000,   6,   1,0.99874,  14.8890,   1
    99,'CXAOOCCA    ',   0.0000,1,     0.000,     0.000,   6,   1,1.02099,  14.5696,   1
   100,'CXCCOOCO    ',   0.0000,1,     0.000,     0.000,   6,   1,0.97187,   6.6253,   1
   101,'CXCOOCOC    ',   0.0000,1,     0.000,     0.000,   6,   1,1.00727,  21.1438,   1
   102,'CXCAOAAO    ',   0.0000,1,     0.000,     0.000,   6,   1,1.01996,  16.6183,   1
   103,'CXOCOCOA    ',   0.0000,1,     0.000,     0.000,   6,   1,1.02601,  30.3094,   1
   104,'CXCOCAAO    ',   0.0000,2,     0.000,     0.000,   6,   1,1.03000,  30.9111,   1
   105,'CXCOCAAO    ',   0.0000,1,     0.000,     0.000,   6,   1,1.05743,  28.9815,   1
   106,'CXCACCCO    ',   0.0000,1,     0.000,     0.000,   6,   1,1.03217,  23.5170,   1
   107,'CXCOOCCC    ',   0.0000,2,     0.000,     0.000,   7,   1,1.03000,   8.3995,   1
   108,'CXCOOCCC    ',   0.0000,2,     0.000,     5.400,   7,   1,1.03000,   6.8279,   1
   109,'CXCCOOCC    ',   0.0000,2,     0.000,     0.000,   7,   1,1.03000,  13.5172,   1
   110,'CXOCAOOO    ',   0.0000,1,     0.000,     0.000,   7,   1,1.01803,  10.0070,   1
   111,'CXOCAOOO    ',   0.0000,1,     0.000,     0.000,   7,   1,1.03000,   4.2717,   1
   112,'CXCCAAOO    ',   0.0000,1,     0.000,     0.000,   7,   1,1.02032,  10.7667,   1
   113,'CXCOOCOO    ',   0.0000,1,     0.000,     0.000,   7,   1,1.02980,   0.3504,   1
   114,'CXAOCOAA    ',   0.0000,1,     0.000,     0.000,   7,   1,1.02472,   7.5595,   1
   115,'CXCCAAOO    ',   0.0000,2,     0.000,     0.000,   7,   1,1.03000,  10.5566,   1
   116,'CXAACAAO    ',   0.0000,1,     0.000,     0.000,   7,   1,0.96010,  -6.0845,   1
   117,'CXOOOCCO    ',   0.0000,2,     0.000,     0.000,   7,   1,1.00283,   2.1436,   1
   118,'CXCCAAOO    ',   0.0000,2,     0.000,     0.000,   7,   1,1.02957,  -4.1874,   1
   119,'CXCOOCAA    ',   0.0000,1,     0.000,     0.000,   7,   1,0.99967,  -2.7443,   1
   120,'CXCOCAOC    ',   0.0000,1,     0.000,     0.000,   7,   1,1.01406,  -3.8789,   1
   121,'CXCCOCAO    ',   0.0000,1,     0.000,     0.000,   7,   1,1.01759,  -4.4580,   1
   122,'CXCOCOCC    ',   0.0000,2,     0.000,     0.000,   7,   1,1.02854,  -2.6859,   1
   123,'CXOOOCOO    ',   0.0000,1,     0.000,     0.000,   7,   1,1.05403,   1.5847,   1
   124,'CXOCCCAC    ',   0.0000,1,     0.000,     0.000,   7,   1,1.01271,   9.9752,   1
   125,'CXCOOCOO    ',   0.0000,1,     0.000,     0.000,   7,   1,1.00001,   2.4461,   1
   126,'CXCCAAOO    ',   0.0000,1,     0.000,     0.000,   7,   1,0.96310,  -1.7648,   1
   127,'CXCCOYCA    ',   0.0000,1,     0.000,     0.000,   8,   1,1.02951,  10.7861,   1
   128,'CXOCCOOO    ',   0.0000,2,     0.000,     0.000,   8,   1,0.99638,   9.2600,   1
   129,'CXOAOCOO    ',   0.0000,1,     0.000,     0.000,   8,   1,1.01120,   9.5534,   1
   130,'CXOCOCOC    ',   0.0000,1,     0.000,   -50.000,   8,   1,1.01547,  13.4899,   1
   131,'CXCOXCOO    ',   0.0000,2,     0.000,     5.400,   8,   1,1.03000,   9.8140,   1
   132,'CXAOOCCC    ',   0.0000,1,     0.000,     0.000,   8,   1,0.99198,   5.2109,   1
   133,'CXOCYAAC    ',   0.0000,2,     0.000,    20.000,   8,   1,1.00785,   4.1826,   1
   134,'CXOCAOCA    ',   0.0000,2,     0.000,    10.000,   8,   1,0.99893,   2.8293,   1
   135,'CXCCCOAC    ',   0.0000,1,     0.000,     0.000,   8,   1,1.03028,   8.1556,   1
   136,'CXOCOAOO    ',   0.0000,2,     0.000,     5.000,   8,   1,1.03000,  12.2512,   1
   137,'CXCACAAA    ',   0.0000,2,     0.000,     5.000,   8,   1,1.02000,   9.8224,   1
   138,'CXOOOCCC    ',   0.0000,1,     0.000,     0.000,   8,   1,1.00589,   3.8858,   1
   139,'CXOCZOAO    ',   0.0000,1,     0.000,    10.000,   8,   1,1.03022,   8.2680,   1
   140,'CXOCZOAO    ',   0.0000,1,     0.000,     0.000,   8,   1,1.01819,  11.9580,   1
   141,'CXCOOOAO    ',   0.0000,2,     0.000,     0.000,   8,   1,1.03000,  11.1435,   1
   142,'CXOOCOCC    ',   0.0000,1,     0.000,   -25.000,   8,   1,1.03068,  10.9478,   1
   143,'CXACACOO    ',   0.0000,1,     0.000,     0.000,   8,   1,1.02267,   9.8098,   1
   144,'CXCOOCCC    ',   0.0000,1,     0.000,     0.000,   8,   1,1.00191,   9.0467,   1
   145,'CXCCOOAO    ',   0.0000,1,     0.000,     0.000,   9,   1,0.99187,   9.3435,   1
   146,'CXCACAAO    ',   0.0000,1,     0.000,     0.000,   9,   1,0.98517,  10.0077,   1
   147,'CXAXCCOA    ',   0.0000,1,     0.000,     0.000,   9,   1,1.02047,  14.3195,   1
   148,'CXAOCOCC    ',   0.0000,1,     0.000,     0.000,   9,   1,1.00961,   8.4323,   1
   149,'CXCOCOOC    ',   0.0000,2,     0.000,     0.000,   9,   1,1.03429,  32.3040,   1
   150,'CXYCOOAO    ',   0.0000,1,     0.000,     1.200,   9,   1,1.02311,  12.8804,   1
   151,'CXCACAOO    ',   0.0000,1,     0.000,  -100.000,   9,   1,1.03380,  26.7019,   1
   152,'CXCOOCAA    ',   0.0000,1,     0.000,     0.000,   9,   1,1.05350,  17.8235,   1
   153,'CXCACCOA    ',   0.0000,1,     0.000,     0.000,   9,   1,1.04380,  15.8653,   1
   154,'CXAOOOCA    ',   0.0000,1,     0.000,     0.000,   9,   1,1.03897,  14.5438,   1
   155,'CXOOAAOO    ',   0.0000,1,     0.000,     0.000,   9,   1,1.04234,  13.8284,   1
   156,'CXOCAAOO    ',   0.0000,1,     0.000,     0.000,   9,   1,1.04693,  16.7646,   1
   157,'CXOOOOOO    ',   0.0000,1,     0.000,     0.000,   9,   1,1.05365,  21.3963,   1
   158,'CXOOCOCO    ',   0.0000,1,     0.000,     0.000,   9,   1,1.04786,  23.7387,   1
   159,'CXACOOCC    ',   0.0000,1,     0.000,     0.000,   9,   1,1.03896,  19.3315,   1
   160,'CXOOCAAC    ',   0.0000,1,     0.000,     0.000,   9,   1,1.04175,  28.0666,   1
   161,'CXAOCOAA    ',   0.0000,1,     0.000,     0.000,   9,   1,1.03009,  18.1153,   1
   162,'CXOAOCAA    ',   0.0000,1,     0.000,     0.000,   9,   1,1.02417,  19.3936,   1
   163,'CXOAOCAA    ',   0.0000,1,     0.000,   -16.500,   9,   1,1.02395,  17.3343,   1
   164,'CXOCOCCC    ',   0.0000,2,     0.000,     0.000,   9,   1,1.04500,  29.0030,   1
   165,'CXCOAAAA    ',   0.0000,1,     0.000,     0.000,   9,   1,1.01007,  15.9444,   1
   166,'CXCCOCAA    ',   0.0000,1,     0.000,     0.000,   9,   1,1.02094,  22.0037,   1
   167,'CXACOCCA    ',   0.0000,2,     0.000,     0.000,   9,   1,1.00000,  14.9229,   1
   168,'CXOCAAOO    ',   0.0000,1,     0.000,     0.000,   9,   1,1.00721,  17.6056,   1
   169,'CXOCACOO    ',   0.0000,1,     0.000,     0.000,   9,   1,1.00321,  15.6635,   1
   170,'CXYOOAAO    ',   0.0000,2,     0.000,     0.000,   9,   1,1.03000,  78.8547,   1
   171,'CXAOOOAO    ',   0.0000,2,     0.000,     3.000,   9,   1,1.07481,  20.0089,   1
   172,'CXAXCCOA    ',   0.0000,1,     0.000,     0.000,   9,   1,1.00639,  13.9789,   1
   173,'CXAXCCCO    ',   0.0000,1,     0.000,     0.000,   9,   1,1.01528,  11.1105,   1
   174,'CXAXCCCO    ',   0.0000,1,     0.000,     0.000,   9,   1,1.01241,  14.9154,   1
   175,'CXCAOOOO    ',   0.0000,1,     0.000,     0.000,   9,   1,0.96451,  12.0085,   1
   176,'CXAAOCCO    ',   0.0000,1,     0.000,     0.000,   9,   1,1.02892,  17.3220,   1
   177,'CXCCAOOA    ',   0.0000,2,     0.000,     0.000,   9,   1,1.03000,  13.6664,   1
   178,'CXCCAACA    ',   0.0000,1,     0.000,     0.000,   9,   1,0.99809,   9.9954,   1
   179,'CXAAAAOA    ',   0.0000,1,     0.000,     1.700,   9,   1,1.03387,  21.3575,   1
   180,'CXAAAAOA    ',   0.0000,1,     0.000,     0.000,   9,   1,1.02862,  24.9345,   1
   181,'CXCAACOC    ',   0.0000,2,     0.000,     0.000,   9,   1,1.06126,  19.4703,   1
   182,'CXCAACOC    ',   0.0000,2,     0.000,     0.000,   9,   1,1.04137,  21.3573,   1
   183,'CXCAOOAA    ',   0.0000,2,     0.000,     0.000,   9,   1,1.05841,  18.7997,   1
   184,'CXOAAOOC    ',   0.0000,1,     0.000,     0.000,   9,   1,1.06705,  21.2077,   1
   185,'CXOAAOOC    ',   0.0000,1,     0.000,     0.000,   9,   1,1.04659,  24.3412,   1
   186,'CXAAOOOA    ',   0.0000,1,     0.000,     0.000,   9,   1,1.03089,  21.4601,   1
   187,'CXCAOAOO    ',   0.0000,2,     0.000,     2.700,   9,   1,1.02687,  20.2729,   1
   188,'CXCACAOO    ',   0.0000,2,     0.000,     0.000,   9,   1,1.05311,  26.0072,   1
   189,'CXOCOCCC    ',   0.0000,2,     0.000,     0.000,   9,   1,1.04500,  28.6254,   1
   190,'CXAACCYC    ',   0.0000,1,     0.000,     0.000,   9,   1,1.00266,  31.3597,   1
   191,'CXCOOOCO    ',   0.0000,1,     0.000,     0.000,   9,   1,1.02490,  23.2920,   1
   192,'CXOOCOCA    ',   0.0000,1,     0.000,     0.000,   9,   1,1.03985,  22.5678,   1
   193,'CXCOCOAC    ',   0.0000,2,     0.000,     0.000,   9,   1,1.02182,  25.4711,   1
   194,'CXCOAOCA    ',   0.0000,1,     0.000,     0.000,   9,   1,1.04668,  41.0928,   1
   195,'CXCOAOCA    ',   0.0000,1,     0.000,     0.000,   9,   1,1.03377,  40.6914,   1
   196,'CXCCAAOA    ',   0.0000,2,     0.000,     0.000,   9,   1,1.04000,  47.2617,   1
   197,'CXCCAAOA    ',   0.0000,2,     0.000,     0.000,   9,   1,1.03000,  46.0863,   1
   198,'CXOCCOCC    ',   0.0000,1,     0.000,     0.000,   9,   1,1.01663,  37.2301,   1
   199,'CXCAOCOO    ',   0.0000,1,     0.000,    10.800,   9,   1,1.03633,  26.5759,   1
...
0 / END OF BUS DATA, BEGIN LOAD DATA
     2,'1 ',1,   1,   1,    88.200,    22.000,     0.000,     0.000,     0.000,     0.000,   1
     3,'1 ',1,   1,   1,    23.200,     7.500,     0.000,     0.000,     0.000,     0.000,   1
     4,'1 ',1,   1,   1,    41.700,    13.600,     0.000,     0.000,     0.000,     0.000,   1
     6,'1 ',1,   1,   1,    42.300,    10.800,     0.000,     0.000,     0.000,     0.000,   1
     7,'1 ',1,   1,   1,    31.500,     8.100,     0.000,     0.000,     0.000,     0.000,   1
     8,'1 ',1,   1,   1,     4.000,     1.000,     0.000,     0.000,     0.000,     0.000,   1
     9,'1 ',1,   1,   1,    36.000,     9.000,     0.000,     0.000,     0.000,     0.000,   1
    10,'1 ',1,   1,   1,    29.700,     9.900,     0.000,     0.000,     0.000,     0.000,   1
    11,'1 ',1,   1,   1,    14.400,     3.600,     0.000,     0.000,     0.000,     0.000,   1
    12,'1 ',1,   1,   1,    12.500,     4.100,     0.000,     0.000,     0.000,     0.000,   1
    13,'1 ',1,   1,   1,    16.200,     5.400,     0.000,     0.000,     0.000,     0.000,   1
    15,'1 ',1,   1,   1,     9.000,     2.200,     0.000,     0.000,     0.000,     0.000,   1
    17,'1 ',1,   1,   1,    27.000,     6.700,     0.000,     0.000,     0.000,     0.000,   1
    18,'1 ',1,   1,   1,    28.800,     9.600,     0.000,     0.000,     0.000,     0.000,   1
    19,'1 ',1,   1,   1,    15.100,     4.900,     0.000,     0.000,     0.000,     0.000,   1
    20,'1 ',1,   1,   1,    10.800,     3.100,     0.000,     0.000,     0.000,     0.000,   1
    21,'1 ',1,   1,   1,    22.500,     7.200,     0.000,     0.000,     0.000,     0.000,   1
    22,'1 ',1,   2,   1,    16.600,     4.100,     0.000,     0.000,     0.000,     0.000,   1
    23,'1 ',1,   2,   1,    20.700,     5.100,     0.000,     0.000,     0.000,     0.000,   1
    24,'1 ',1,   2,   1,    15.100,     3.900,     0.000,     0.000,     0.000,     0.000,   1
    26,'1 ',1,   2,   1,    60.800,     0.000,     0.000,     0.000,     0.000,     0.000,   1
    27,'1 ',1,   2,   1,   106.500,   -13.500,     0.000,     0.000,     0.000,     0.000,   1
    28,'1 ',1,   2,   1,    45.600,     7.200,     0.000,     0.000,     0.000,     0.000,   1
    29,'1 ',1,   2,   1,    15.100,     3.800,     0.000,     0.000,     0.000,     0.000,   1
    30,'1 ',1,   2,   1,    26.700,     6.800,     0.000,     0.000,     0.000,     0.000,   1
    32,'1 ',1,   2,   1,    24.900,     5.900,     0.000,     0.000,     0.000,     0.000,   1
    34,'1 ',1,   2,   1,    17.300,     4.300,     0.000,     0.000,     0.000,     0.000,   1
    35,'1 ',1,   2,   1,    22.500,    -1.800,     0.000,     0.000,     0.000,     0.000,   1
    36,'1 ',1,   2,   1,     8.900,     2.300,     0.000,     0.000,     0.000,     0.000,   1
    37,'1 ',1,   2,   1,    25.600,     6.800,     0.000,     0.000,     0.000,     0.000,   1
    38,'1 ',1,   2,   1,    27.600,     6.800,     0.000,     0.000,     0.000,     0.000,   1
    39,'1 ',1,   2,   1,    15.100,     3.800,     0.000,     0.000,     0.000,     0.000,   1
    41,'1 ',1,   2,   1,     9.400,     2.300,     0.000,     0.000,     0.000,     0.000,   1
    44,'1 ',1,   2,   1,    89.900,     0.000,     0.000,     0.000,     0.000,     0.000,   1
    45,'1 ',1,   2,   1,    57.900,    -6.300,     0.000,     0.000,     0.000,     0.000,   1
    46,'1 ',1,   2,   1,    39.800,     0.000,     0.000,     0.000,     0.000,     0.000,   1
    50,'1 ',1,   2,   1,     1.100,     0.400,     0.000,     0.000,     0.000,     0.000,   1
    51,'1 ',1,   3,   1,   100.300,    20.100,     0.000,     0.000,     0.000,     0.000,   1
    52,'1 ',1,   3,   1,    53.000,    11.400,     0.000,     0.000,     0.000,     0.000,   1
    53,'1 ',1,   3,   1,    45.300,    12.600,     0.000,     0.000,     0.000,     0.000,   1
    54,'1 ',1,   3,   1,   247.600,    49.500,     0.000,     0.000,     0.000,     0.000,   1
    56,'1 ',1,   3,   1,   138.600,    28.100,     0.000,     0.000,     0.000,     0.000,   1
    57,'1 ',1,   3,   1,    13.500,     2.800,     0.000,     0.000,     0.000,     0.000,   1
    58,'1 ',1,   3,   1,    32.400,     6.700,     0.000,     0.000,     0.000,     0.000,   1
    60,'1 ',1,   4,   1,    32.700,     4.800,     0.000,     0.000,     0.000,     0.000,   1
    61,'1 ',1,   4,   1,     4.000,     1.000,     0.000,     0.000,     0.000,     0.000,   1
    64,'1 ',1,   4,   1,    56.700,     6.300,     0.000,     0.000,     0.000,     0.000,   1
    65,'1 ',1,   4,   1,    12.300,    -0.400,     0.000,     0.000,     0.000,     0.000,   1
    66,'1 ',1,   4,   1,    53.600,     7.600,     0.000,     0.000,     0.000,     0.000,   1
    68,'1 ',1,   4,   1,     5.700,     1.800,     0.000,     0.000,     0.000,     0.000,   1
    69,'1 ',1,   4,   1,    37.900,     4.900,     0.000,     0.000,     0.000,     0.000,   1
    70,'1 ',1,   4,   1,    30.100,     2.500,     0.000,     0.000,     0.000,     0.000,   1
    71,'1 ',1,   4,   1,    17.500,     5.100,     0.000,     0.000,     0.000,     0.000,   1
    72,'1 ',1,   4,   1,    17.300,    -1.700,     0.000,     0.000,     0.000,     0.000,   1
    73,'1 ',1,   4,   1,     2.400,     0.600,     0.000,     0.000,     0.000,     0.000,   1
    74,'1 ',1,   4,   1,    36.000,     4.500,     0.000,     0.000,     0.000,     0.000,   1
    75,'1 ',1,   4,   1,    27.000,     4.500,     0.000,     0.000,     0.000,     0.000,   1
    78,'1 ',1,   5,   1,    79.200,     0.000,     0.000,     0.000,     0.000,     0.000,   1
    79,'1 ',1,   5,   1,   119.700,    24.300,     0.000,     0.000,     0.000,     0.000,   1
    80,'1 ',1,   5,   1,   128.700,    26.100,     0.000,     0.000,     0.000,     0.000,   1
    81,'1 ',1,   5,   1,    93.600,    18.900,     0.000,     0.000,     0.000,     0.000,   1
    82,'1 ',1,   5,   1,    36.000,     4.500,     0.000,     0.000,     0.000,     0.000,   1
    83,'1 ',1,   5,   1,    53.100,     0.000,     0.000,     0.000,     0.000,     0.000,   1
    84,'1 ',1,   5,   1,    96.300,    19.800,     0.000,     0.000,     0.000,     0.000,   1
    86,'1 ',1,   5,   1,    35.100,     4.500,     0.000,     0.000,     0.000,     0.000,   1
    88,'1 ',1,   5,   1,     5.400,     0.900,     0.000,     0.000,     0.000,     0.000,   1
    90,'1 ',1,   6,   1,     8.500,     2.100,     0.000,     0.000,     0.000,     0.000,   1
    91,'1 ',1,   6,   1,    13.700,     3.900,     0.000,     0.000,     0.000,     0.000,   1
    92,'1 ',1,   6,   1,    10.300,     2.500,     0.000,     0.000,     0.000,     0.000,   1
    93,'1 ',1,   6,   1,    13.000,     3.200,     0.000,     0.000,     0.000,     0.000,   1
    94,'1 ',1,   6,   1,    17.000,     4.700,     0.000,     0.000,     0.000,     0.000,   1
    95,'1 ',1,   6,   1,    31.400,     9.600,     0.000,     0.000,     0.000,     0.000,   1
    96,'1 ',1,   6,   1,    29.900,     7.800,     0.000,     0.000,     0.000,     0.000,   1
    98,'1 ',1,   6,   1,    17.600,     5.300,     0.000,     0.000,     0.000,     0.000,   1
    99,'1 ',1,   6,   1,    36.800,     2.200,     0.000,     0.000,     0.000,     0.000,   1
   100,'1 ',1,   6,   1,    55.500,     8.400,     0.000,     0.000,     0.000,     0.000,   1
   101,'1 ',1,   6,   1,    13.900,     3.400,     0.000,     0.000,     0.000,     0.000,   1
   102,'1 ',1,   6,   1,    18.200,     4.900,     0.000,     0.000,     0.000,     0.000,   1
   103,'1 ',1,   6,   1,    22.000,     5.500,     0.000,     0.000,     0.000,     0.000,   1
   106,'1 ',1,   6,   1,     4.800,     1.200,     0.000,     0.000,     0.000,     0.000,   1
   108,'1 ',1,   7,   1,    63.400,    20.300,     0.000,     0.000,     0.000,     0.000,   1
   109,'1 ',1,   7,   1,    66.800,    22.500,     0.000,     0.000,     0.000,     0.000,   1
   111,'1 ',1,   7,   1,    55.000,    18.600,     0.000,     0.000,     0.000,     0.000,   1
   113,'1 ',1,   7,   1,    31.500,    10.500,     0.000,     0.000,     0.000,     0.000,   1
   114,'1 ',1,   7,   1,    26.100,     8.900,     0.000,     0.000,     0.000,     0.000,   1
   115,'1 ',1,   7,   1,    30.300,    10.100,     0.000,     0.000,     0.000,     0.000,   1
   117,'1 ',1,   7,   1,    49.900,    16.900,     0.000,     0.000,     0.000,     0.000,   1
   118,'1 ',1,   7,   1,    43.400,    14.100,     0.000,     0.000,     0.000,     0.000,   1
   119,'1 ',1,   7,   1,    16.400,     5.500,     0.000,     0.000,     0.000,     0.000,   1
   122,'1 ',1,   7,   1,     1.700,     0.500,     0.000,     0.000,     0.000,     0.000,   1
   123,'1 ',1,   7,   1,    14.300,     4.800,     0.000,     0.000,     0.000,     0.000,   1
   127,'1 ',1,   8,   1,     0.900,     0.000,     0.000,     0.000,     0.000,     0.000,   1
   128,'1 ',1,   8,   1,    17.800,     5.100,     0.000,     0.000,     0.000,     0.000,   1
   129,'1 ',1,   8,   1,    40.100,    11.400,     0.000,     0.000,     0.000,     0.000,   1
   131,'1 ',1,   8,   1,    35.800,     9.100,     0.000,     0.000,     0.000,     0.000,   1
   132,'1 ',1,   8,   1,    23.100,     6.400,     0.000,     0.000,     0.000,     0.000,   1
   133,'1 ',1,   8,   1,    77.500,    20.900,     0.000,     0.000,     0.000,     0.000,   1
   134,'1 ',1,   8,   1,    36.000,    10.800,     0.000,     0.000,     0.000,     0.000,   1
   135,'1 ',1,   8,   1,    33.700,    10.300,     0.000,     0.000,     0.000,     0.000,   1
   136,'1 ',1,   8,   1,    27.000,     6.300,     0.000,     0.000,     0.000,     0.000,   1
   137,'1 ',1,   8,   1,    76.500,    22.500,     0.000,     0.000,     0.000,     0.000,   1
   138,'1 ',1,   8,   1,    27.000,     7.200,     0.000,     0.000,     0.000,     0.000,   1
   139,'1 ',1,   8,   1,    36.000,     9.000,     0.000,     0.000,     0.000,     0.000,   1
   141,'1 ',1,   8,   1,    99.000,    27.000,     0.000,     0.000,     0.000,     0.000,   1
   143,'1 ',1,   8,   1,    30.400,     7.100,     0.000,     0.000,     0.000,     0.000,   1
   144,'1 ',1,   8,   1,    18.600,     5.900,     0.000,     0.000,     0.000,     0.000,   1
   147,'1 ',1,   9,   1,    40.800,    13.400,     0.000,     0.000,     0.000,     0.000,   1
   149,'1 ',1,   9,   1,    55.000,    18.100,     0.000,     0.000,     0.000,     0.000,   1
   150,'1 ',1,   9,   1,     6.500,     2.200,     0.000,     0.000,     0.000,     0.000,   1
   152,'1 ',1,   9,   1,     2.700,     0.900,     0.000,     0.000,     0.000,     0.000,   1
   153,'1 ',1,   9,   1,     6.500,     2.200,     0.000,     0.000,     0.000,     0.000,   1
   154,'1 ',1,   9,   1,    11.000,     3.600,     0.000,     0.000,     0.000,     0.000,   1
   155,'1 ',1,   9,   1,     8.500,     2.800,     0.000,     0.000,     0.000,     0.000,   1
   156,'1 ',1,   9,   1,     7.500,     2.400,     0.000,     0.000,     0.000,     0.000,   1
   157,'1 ',1,   9,   1,     4.400,     1.400,     0.000,     0.000,     0.000,     0.000,   1
   158,'1 ',1,   9,   1,     3.900,     1.300,     0.000,     0.000,     0.000,     0.000,   1
   159,'1 ',1,   9,   1,     3.700,     1.200,     0.000,     0.000,     0.000,     0.000,   1
   160,'1 ',1,   9,   1,    21.400,     7.000,     0.000,     0.000,     0.000,     0.000,   1
   161,'1 ',1,   9,   1,     0.500,     0.200,     0.000,     0.000,     0.000,     0.000,   1
   163,'1 ',1,   9,   1,     1.000,     0.400,     0.000,     0.000,     0.000,     0.000,   1
   165,'1 ',1,   9,   1,     6.000,     2.000,     0.000,     0.000,     0.000,     0.000,   1
   166,'1 ',1,   9,   1,     7.700,     2.500,     0.000,     0.000,     0.000,     0.000,   1
   167,'1 ',1,   9,   1,    75.300,    24.800,     0.000,     0.000,     0.000,     0.000,   1
   168,'1 ',1,   9,   1,     9.500,     3.100,     0.000,     0.000,     0.000,     0.000,   1
   169,'1 ',1,   9,   1,     4.800,     1.500,     0.000,     0.000,     0.000,     0.000,   1
   171,'1 ',1,   9,   1,    11.000,     3.600,     0.000,     0.000,     0.000,     0.000,   1
   173,'1 ',1,   9,   1,    35.800,    11.800,     0.000,     0.000,     0.000,     0.000,   1
   175,'1 ',1,   9,   1,    47.500,    15.300,     0.000,     0.000,     0.000,     0.000,   1
   178,'1 ',1,   9,   1,    22.400,     7.400,     0.000,     0.000,     0.000,     0.000,   1
   179,'1 ',1,   9,   1,    35.200,    11.500,     0.000,     0.000,     0.000,     0.000,   1
   183,'1 ',1,   9,   1,    16.400,     5.400,     0.000,     0.000,     0.000,     0.000,   1
   184,'1 ',1,   9,   1,    18.400,     6.000,     0.000,     0.000,     0.000,     0.000,   1
   186,'1 ',1,   9,   1,    11.000,     3.400,     0.000,     0.000,     0.000,     0.000,   1
   187,'1 ',1,   9,   1,    32.600,    10.700,     0.000,     0.000,     0.000,     0.000,   1
   188,'1 ',1,   9,   1,     8.400,     2.800,     0.000,     0.000,     0.000,     0.000,   1
   190,'1 ',1,   9,   1,    16.200,     4.400,     0.000,     0.000,     0.000,     0.000,   1
   191,'1 ',1,   9,   1,    11.200,     3.700,     0.000,     0.000,     0.000,     0.000,   1
   192,'1 ',1,   9,   1,    12.000,     0.100,     0.000,     0.000,     0.000,     0.000,   1
   193,'1 ',1,   9,   1,    25.200,     8.300,     0.000,     0.000,     0.000,     0.000,   1
   194,'1 ',1,   9,   1,    46.100,    14.500,     0.000,     0.000,     0.000,     0.000,   1
   198,'1 ',1,   9,   1,    15.100,     4.600,     0.000,     0.000,     0.000,     0.000,   1
   199,'1 ',1,   9,   1,     5.900,     1.500,     0.000,     0.000,     0.000,     0.000,   1
   200,'1 ',1,   9,   1,    13.400,     4.000,     0.000,     0.000,     0.000,     0.000,   1
   202,'1 ',1,   9,   1,    65.200,    21.500,     0.000,     0.000,     0.000,     0.000,   1
   204,'1 ',1,   9,   1,    29.800,     9.600,     0.000,     0.000,     0.000,     0.000,   1
   206,'1 ',1,   9,   1,    37.900,     8.200,     0.000,     0.000,     0.000,     0.000,   1
   207,'1 ',1,   9,   1,    17.800,     4.900,     0.000,     0.000,     0.000,     0.000,   1
   209,'1 ',1,   9,   1,     6.500,     2.200,     0.000,     0.000,     0.000,     0.000,   1
   210,'1 ',1,   9,   1,     7.000,     2.300,     0.000,     0.000,     0.000,     0.000,   1
   211,'1 ',1,   9,   1,    61.300,    19.100,     0.000,     0.000,     0.000,     0.000,   1
   212,'1 ',1,   9,   1,     9.000,     2.900,     0.000,     0.000,     0.000,     0.000,   1
   213,'1 ',1,   9,   1,     4.500,     1.400,     0.000,     0.000,     0.000,     0.000,   1
   214,'1 ',1,   9,   1,     5.300,     1.700,     0.000,     0.000,     0.000,     0.000,   1
   217,'1 ',1,   9,   1,    14.800,     4.900,     0.000,     0.000,     0.000,     0.000,   1
   218,'1 ',1,   9,   1,     8.300,     2.700,     0.000,     0.000,     0.000,     0.000,   1
   219,'1 ',1,   9,   1,    57.900,    17.300,     0.000,     0.000,     0.000,     0.000,   1
   221,'1 ',1,   9,   1,     6.900,     2.200,     0.000,     0.000,     0.000,     0.000,   1
   222,'1 ',1,   9,   1,    12.400,     3.600,     0.000,     0.000,     0.000,     0.000,   1
   223,'1 ',1,   9,   1,    10.700,     3.200,     0.000,     0.000,     0.000,     0.000,   1
   224,'1 ',1,   9,   1,    15.000,     4.700,     0.000,     0.000,     0.000,     0.000,   1
   225,'1 ',1,   9,   1,    14.400,     4.300,     0.000,     0.000,     0.000,     0.000,   1
   226,'1 ',1,   9,   1,    20.000,    -0.100,     0.000,     0.000,     0.000,     0.000,   1
   228,'1 ',1,   9,   1,     2.800,     0.600,     0.000,     0.000,     0.000,     0.000,   1
   229,'1 ',1,   9,   1,     4.700,     1.500,     0.000,     0.000,     0.000,     0.000,   1
   230,'1 ',1,   9,   1,    17.000,     1.100,     0.000,     0.000,     0.000,     0.000,   1
   231,'1 ',1,   9,   1,    12.600,     4.100,     0.000,     0.000,     0.000,     0.000,   1
   232,'1 ',1,   9,   1,    15.900,     5.200,     0.000,     0.000,     0.000,     0.000,   1
   233,'1 ',1,   9,   1,    15.200,     5.000,     0.000,     0.000,     0.000,     0.000,   1
   234,'1 ',1,   9,   1,    19.300,     6.400,     0.000,     0.000,     0.000,     0.000,   1
   235,'1 ',1,   9,   1,    28.200,     9.300,     0.000,     0.000,     0.000,     0.000,   1
   236,'1 ',1,   9,   1,     9.700,     3.200,     0.000,     0.000,     0.000,     0.000,   1
   238,'1 ',1,   9,   1,    42.200,    12.900,     0.000,     0.000,     0.000,     0.000,   1
   240,'1 ',1,   9,   1,    12.600,     4.100,     0.000,     0.000,     0.000,     0.000,   1
   241,'1 ',1,   9,   1,    11.300,     2.800,     0.000,     0.000,     0.000,     0.000,   1
   242,'1 ',1,   9,   1,    35.500,    11.800,     0.000,     0.000,     0.000,     0.000,   1
   249,'1 ',1,  10,   1,    41.800,    13.800,     0.000,     0.000,     0.000,     0.000,   1
   250,'1 ',1,  10,   1,     8.100,     2.700,     0.000,     0.000,     0.000,     0.000,   1
   252,'1 ',1,  10,   1,     5.800,     1.800,     0.000,     0.000,     0.000,     0.000,   1
   253,'1 ',1,  10,   1,    55.300,    17.200,     0.000,     0.000,     0.000,     0.000,   1
   254,'1 ',1,  10,   1,    11.500,     3.600,     0.000,     0.000,     0.000,     0.000,   1
   255,'1 ',1,  10,   1,    10.400,     3.400,     0.000,     0.000,     0.000,     0.000,   1
   256,'1 ',1,  10,   1,     9.700,     2.600,     0.000,     0.000,     0.000,     0.000,   1
   257,'1 ',1,  10,   1,     7.200,     2.200,     0.000,     0.000,     0.000,     0.000,   1
   258,'1 ',1,  10,   1,     7.500,     2.400,     0.000,     0.000,     0.000,     0.000,   1
   259,'1 ',1,  10,   1,    13.900,     4.100,     0.000,     0.000,     0.000,     0.000,   1
   260,'1 ',1,  10,   1,     5.100,     1.700,     0.000,     0.000,     0.000,     0.000,   1
   261,'1 ',1,  10,   1,     7.100,     2.300,     0.000,     0.000,     0.000,     0.000,   1
   262,'1 ',1,  10,   1,    19.900,     6.000,     0.000,     0.000,     0.000,     0.000,   1
   264,'1 ',1,  10,   1,    13.300,     4.100,     0.000,     0.000,     0.000,     0.000,   1
   265,'1 ',1,  10,   1,    22.100,     6.400,     0.000,     0.000,     0.000,     0.000,   1
   266,'1 ',1,  10,   1,    23.200,     7.000,     0.000,     0.000,     0.000,     0.000,   1
   267,'1 ',1,  10,   1,     7.500,     2.400,     0.000,     0.000,     0.000,     0.000,   1
   268,'1 ',1,  10,   1,     8.900,     2.500,     0.000,     0.000,     0.000,     0.000,   1
   270,'1 ',1,  10,   1,     4.000,     1.300,     0.000,     0.000,     0.000,     0.000,   1
   271,'1 ',1,  11,   1,    13.500,     4.500,     0.000,     0.000,     0.000,     0.000,   1
   272,'1 ',1,  16,   1,    28.400,    13.600,     0.000,     0.000,     0.000,     0.000,   1
   273,'1 ',1,  16,   1,     2.800,     1.400,     0.000,     0.000,     0.000,     0.000,   1
   274,'1 ',1,  16,   1,    19.700,     9.200,     0.000,     0.000,     0.000,     0.000,   1
   275,'1 ',1,  16,   1,     3.500,     5.200,     0.000,     0.000,     0.000,     0.000,   1
   277,'1 ',1,  16,   1,    11.600,     5.300,     0.000,     0.000,     0.000,     0.000,   1
...
0 / END OF LOAD DATA, BEGIN GENERATOR DATA
     4,'1 ',    19.000,     2.000,     2.000,    -2.000,1.03000,     0,    21.015,   0.00000,   0.23000,   0.00000,   0.00000,1.00000,1,  100.0,  9999.000, -9999.000,   1,1.0000
     6,'1 ',    72.000,    15.819,    37.000,   -30.000,1.03000,     0,    81.078,   0.00000,   0.23000,   0.00000,   0.00000,1.00000,1,  100.0,  9999.000, -9999.000,   1,1.0000
    15,'1 ',     8.000,     2.000,     2.000,    -2.000,1.03000,     0,     9.071,   0.00000,   0.23000,   0.00000,   0.00000,1.00000,1,  100.0,  9999.000, -9999.000,   1,1.0000
    18,'1 ',     8.000,     3.000,     3.000,    -3.000,1.03000,     0,     9.398,   0.00000,   0.23000,   0.00000,   0.00000,1.00000,1,  100.0,  9999.000, -9999.000,   1,1.0000
    21,'1 ',     0.000,     0.100,     0.100,    -0.100,1.03000,     0,     0.110,   0.00000,   0.23000,   0.00000,   0.00000,1.00000,1,  100.0,  9999.000, -9999.000,   1,1.0000
    26,'1 ',   213.100,   -50.341,   125.200,  -101.000,1.05000,     0,   240.981,   0.00000,   0.23000,   0.00000,   0.00000,1.00000,1,  100.0,  9999.000, -9999.000,   1,1.0000
    27,'1 ',   142.000,    35.136,    66.600,   -49.000,1.05000,     0,   160.880,   0.00000,   0.23000,   0.00000,   0.00000,1.00000,1,  100.0,  9999.000, -9999.000,   1,1.0000
    28,'1 ',     0.000,     0.100,     0.100,     0.000,1.03000,     0,     0.110,   0.00000,   0.23000,   0.00000,   0.00000,1.00000,1,  100.0,  9999.000, -9999.000,   1,1.0000
    41,'1 ',   400.000,    16.536,   200.000,  -150.000,1.03000,     0,   440.331,   0.00000,   0.23000,   0.00000,   0.00000,1.00000,1,  100.0,  9999.000, -9999.000,   1,1.0000
    44,'1 ',    13.000,    -3.197,    17.000,   -13.000,1.05000,     0,    14.818,   0.00000,   0.23000,   0.00000,   0.00000,1.00000,1,  100.0,  9999.000, -9999.000,   1,1.0000
    51,'1 ',   131.000,    11.019,    44.000,   -32.000,1.03000,     0,   144.605,   0.00000,   0.23000,   0.00000,   0.00000,1.00000,1,  100.0,  9999.000, -9999.000,   1,1.0000
    53,'1 ',     4.500,     1.800,     1.800,     1.800,1.01470,     0,     5.331,   0.00000,   0.23000,   0.00000,   0.00000,1.00000,1,  100.0,  9999.000, -9999.000,   1,1.0000
    54,'1 ',    60.500,    22.000,    22.000,   -25.000,1.03000,     0,    70.813,   0.00000,   0.23000,   0.00000,   0.00000,1.00000,1,  100.0,  9999.000, -9999.000,   1,1.0000
    56,'1 ',     2.000,     0.000,     0.000,     0.000,1.02230,     0,     2.200,   0.00000,   0.23000,   0.00000,   0.00000,1.00000,1,  100.0,  9999.000, -9999.000,   1,1.0000
    57,'1 ',     7.700,     0.000,     0.000,     0.000,1.00930,     0,     8.470,   0.00000,   0.23000,   0.00000,   0.00000,1.00000,1,  100.0,  9999.000, -9999.000,   1,1.0000
    58,'1 ',     7.700,     0.000,     0.000,     0.000,0.98840,     0,     8.470,   0.00000,   0.23000,   0.00000,   0.00000,1.00000,1,  100.0,  9999.000, -9999.000,   1,1.0000
    63,'1 ',   151.600,    37.060,    75.000,   -50.000,1.03000,     0,   171.578,   0.00000,   0.23000,   0.00000,   0.00000,1.00000,1,  100.0,  9999.000, -9999.000,   1,1.0000
    69,'1 ',     1.000,     0.000,     0.000,     0.000,1.01060,     0,     1.100,   0.00000,   0.23000,   0.00000,   0.00000,1.00000,1,  100.0,  9999.000, -9999.000,   1,1.0000
    79,'1 ',    68.800,     0.000,    20.300,     0.000,1.02000,     0,    75.680,   0.00000,   0.23000,   0.00000,   0.00000,1.00000,1,  100.0,  9999.000, -9999.000,   1,1.0000
    80,'1 ',    80.200,   -10.000,    33.300,   -10.000,1.02000,     0,    88.903,   0.00000,   0.23000,   0.00000,   0.00000,1.00000,1,  100.0,  9999.000, -9999.000,   1,1.0000
    81,'1 ',    31.200,    11.433,    12.700,     0.000,1.02000,     0,    36.526,   0.00000,   0.23000,   0.00000,   0.00000,1.00000,1,  100.0,  9999.000, -9999.000,   1,1.0000
    84,'1 ',    70.800,    24.700,    24.700,     0.000,1.03000,     0,    82.483,   0.00000,   0.23000,   0.00000,   0.00000,1.00000,1,  100.0,  9999.000, -9999.000,   1,1.0000
    86,'1 ',    80.000,     7.560,    35.000,   -20.000,1.03000,     0,    88.391,   0.00000,   0.23000,   0.00000,   0.00000,1.00000,1,  100.0,  9999.000, -9999.000,   1,1.0000
    91,'1 ',    15.000,    -6.000,     9.000,    -6.000,1.03000,     0,    17.771,   0.00000,   0.23000,   0.00000,   0.00000,1.00000,1,  100.0,  9999.000, -9999.000,   1,1.0000
    96,'1 ',    98.000,   -10.777,    70.000,   -55.000,1.03000,     0,   108.462,   0.00000,   0.23000,   0.00000,   0.00000,1.00000,1,  100.0,  9999.000, -9999.000,   1,1.0000
    98,'1 ',     8.000,     0.000,     0.000,     0.000,0.99880,     0,     8.800,   0.00000,   0.23000,   0.00000,   0.00000,1.00000,1,  100.0,  9999.000, -9999.000,   1,1.0000
   104,'1 ',   439.000,   -27.415,   220.000,  -109.000,1.03000,     0,   483.910,   0.00000,   0.23000,   0.00000,   0.00000,1.00000,1,  100.0,  9999.000, -9999.000,   1,1.0000
   107,'1 ',   130.000,    29.303,    62.000,   -62.000,1.03000,     0,   146.583,   0.00000,   0.23000,   0.00000,   0.00000,1.00000,1,  100.0,  9999.000, -9999.000,   1,1.0000
   108,'1 ',    46.000,     7.907,    25.000,   -25.000,1.03000,     0,    51.342,   0.00000,   0.23000,   0.00000,   0.00000,1.00000,1,  100.0,  9999.000, -9999.000,   1,1.0000
   109,'1 ',   347.300,    21.437,   174.000,  -174.000,1.03000,     0,   382.756,   0.00000,   0.23000,   0.00000,   0.00000,1.00000,1,  100.0,  9999.000, -9999.000,   1,1.0000
   115,'1 ',    28.000,     0.615,    14.000,   -14.000,1.03000,     0,    30.807,   0.00000,   0.23000,   0.00000,   0.00000,1.00000,1,  100.0,  9999.000, -9999.000,   1,1.0000
   117,'1 ',     2.600,     0.000,     0.000,     0.000,1.00280,     0,     2.860,   0.00000,   0.23000,   0.00000,   0.00000,1.00000,1,  100.0,  9999.000, -9999.000,   1,1.0000
   118,'1 ',     0.800,     0.000,     0.000,     0.000,1.02960,     0,     0.880,   0.00000,   0.23000,   0.00000,   0.00000,1.00000,1,  100.0,  9999.000, -9999.000,   1,1.0000
   122,'1 ',    12.000,     6.000,     6.000,    -6.000,1.03000,     0,    14.758,   0.00000,   0.23000,   0.00000,   0.00000,1.00000,1,  100.0,  9999.000, -9999.000,   1,1.0000
   128,'1 ',     4.500,     1.800,     1.800,     1.800,0.99650,     0,     5.331,   0.00000,   0.23000,   0.00000,   0.00000,1.00000,1,  100.0,  9999.000, -9999.000,   1,1.0000
   131,'1 ',   100.000,    29.771,    30.000,   -20.000,1.03000,     0,   114.742,   0.00000,   0.23000,   0.00000,   0.00000,1.00000,1,  100.0,  9999.000, -9999.000,   1,1.0000
   133,'1 ',     7.000,     0.000,     0.000,     0.000,1.00790,     0,     7.700,   0.00000,   0.23000,   0.00000,   0.00000,1.00000,1,  100.0,  9999.000, -9999.000,   1,1.0000
   134,'1 ',     8.000,     0.000,     0.000,     0.000,0.99910,     0,     8.800,   0.00000,   0.23000,   0.00000,   0.00000,1.00000,1,  100.0,  9999.000, -9999.000,   1,1.0000
   136,'1 ',    56.000,    -0.504,    15.000,   -10.000,1.03000,     0,    61.603,   0.00000,   0.23000,   0.00000,   0.00000,1.00000,1,  100.0,  9999.000, -9999.000,   1,1.0000
   137,'1 ',    75.000,     8.917,    20.000,   -15.000,1.02000,     0,    83.078,   0.00000,   0.23000,   0.00000,   0.00000,1.00000,1,  100.0,  9999.000, -9999.000,   1,1.0000
   141,'1 ',   215.000,    23.025,    80.000,   -50.000,1.03000,     0,   237.840,   0.00000,   0.23000,   0.00000,   0.00000,1.00000,1,  100.0,  9999.000, -9999.000,   1,1.0000
   149,'1 ',     8.000,     0.000,     0.000,     0.000,1.03430,     0,     8.800,   0.00000,   0.23000,   0.00000,   0.00000,1.00000,1,  100.0,  9999.000, -9999.000,   1,1.0000
   164,'1 ',    90.000,   -43.410,    35.000,   -50.000,1.04500,     0,   110.349,   0.00000,   0.23000,   0.00000,   0.00000,1.00000,1,  100.0,  9999.000, -9999.000,   1,1.0000
   167,'1 ',     0.000,     4.831,    10.000,    -5.000,1.00000,     0,     3.422,   0.00000,   0.23000,   0.00000,   0.00000,1.00000,1,  100.0,  9999.000, -9999.000,   1,1.0000
   170,'1 ',   100.000,   -11.720,    54.000,   -56.000,1.03000,     0,   110.762,   0.00000,   0.23000,   0.00000,   0.00000,1.00000,1,  100.0,  9999.000, -9999.000,   1,1.0000
   171,'1 ',     4.000,     0.000,     5.900,     0.000,1.03000,     0,     4.400,   0.00000,   0.23000,   0.00000,   0.00000,1.00000,1,  100.0,  9999.000, -9999.000,   1,1.0000
   177,'1 ',    68.000,   -17.186,    30.000,   -40.000,1.03000,     0,    77.226,   0.00000,   0.23000,   0.00000,   0.00000,1.00000,1,  100.0,  9999.000, -9999.000,   1,1.0000
   181,'1 ',    70.000,   -20.000,    30.000,   -20.000,1.04000,     0,    80.081,   0.00000,   0.23000,   0.00000,   0.00000,1.00000,1,  100.0,  9999.000, -9999.000,   1,1.0000
   182,'1 ',   140.000,   -40.000,    60.000,   -40.000,1.03000,     0,   160.162,   0.00000,   0.23000,   0.00000,   0.00000,1.00000,1,  100.0,  9999.000, -9999.000,   1,1.0000
   183,'1 ',     4.000,     0.000,     6.000,     0.000,1.03000,     0,     4.400,   0.00000,   0.23000,   0.00000,   0.00000,1.00000,1,  100.0,  9999.000, -9999.000,   1,1.0000
   187,'1 ',     0.500,     0.400,     0.400,     0.000,1.03000,     0,     0.704,   0.00000,   0.23000,   0.00000,   0.00000,1.00000,1,  100.0,  9999.000, -9999.000,   1,1.0000
   188,'1 ',   106.200,   -36.000,    48.000,   -36.000,1.04000,     0,   123.349,   0.00000,   0.23000,   0.00000,   0.00000,1.00000,1,  100.0,  9999.000, -9999.000,   1,1.0000
   189,'1 ',   270.000,   -70.030,   105.000,  -150.000,1.04500,     0,   307.740,   0.00000,   0.23000,   0.00000,   0.00000,1.00000,1,  100.0,  9999.000, -9999.000,   1,1.0000
   193,'1 ',     1.000,     0.400,     0.400,     0.400,1.02220,     0,     1.185,   0.00000,   0.23000,   0.00000,   0.00000,1.00000,1,  100.0,  9999.000, -9999.000,   1,1.0000
   196,'1 ',   160.000,   -40.862,    70.000,  -110.000,1.04000,     0,   181.687,   0.00000,   0.23000,   0.00000,   0.00000,1.00000,1,  100.0,  9999.000, -9999.000,   1,1.0000
   197,'1 ',   240.000,   -17.458,   105.000,  -165.000,1.03000,     0,   264.727,   0.00000,   0.23000,   0.00000,   0.00000,1.00000,1,  100.0,  9999.000, -9999.000,   1,1.0000
   202,'1 ',    14.200,     5.700,     5.700,     5.700,1.01160,     0,    16.831,   0.00000,   0.23000,   0.00000,   0.00000,1.00000,1,  100.0,  9999.000, -9999.000,   1,1.0000
   204,'1 ',     0.000,   -25.000,    60.000,   -25.000,1.03000,     0,    27.500,   0.00000,   0.23000,   0.00000,   0.00000,1.00000,1,  100.0,  9999.000, -9999.000,   1,1.0000
   206,'1 ',    20.000,     0.396,    10.500,    -5.000,1.03000,     0,    22.003,   0.00000,   0.23000,   0.00000,   0.00000,1.00000,1,  100.0,  9999.000, -9999.000,   1,1.0000
   211,'1 ',    10.000,     0.000,     0.000,     0.000,0.95180,     0,    11.000,   0.00000,   0.23000,   0.00000,   0.00000,1.00000,1,  100.0,  9999.000, -9999.000,   1,1.0000
   214,'1 ',    60.000,    -3.344,    15.000,   -15.000,1.03000,     0,    66.105,   0.00000,   0.23000,   0.00000,   0.00000,1.00000,1,  100.0,  9999.000, -9999.000,   1,1.0000
   216,'1 ',    94.000,    -8.045,    20.000,   -20.000,1.03000,     0,   103.791,   0.00000,   0.23000,   0.00000,   0.00000,1.00000,1,  100.0,  9999.000, -9999.000,   1,1.0000
   217,'1 ',    44.000,    20.000,    20.000,    -8.000,1.03000,     0,    53.165,   0.00000,   0.23000,   0.00000,   0.00000,1.00000,1,  100.0,  9999.000, -9999.000,   1,1.0000
   219,'1 ',    24.700,     0.000,     0.000,     0.000,1.00530,     0,    27.170,   0.00000,   0.23000,   0.00000,   0.00000,1.00000,1,  100.0,  9999.000, -9999.000,   1,1.0000
   226,'1 ',     2.100,     0.800,     0.800,     0.800,1.04700,     0,     2.472,   0.00000,   0.23000,   0.00000,   0.00000,1.00000,1,  100.0,  9999.000, -9999.000,   1,1.0000
   237,'1 ',   200.000,    60.000,    60.000,   -40.000,1.04000,     0,   229.687,   0.00000,   0.23000,   0.00000,   0.00000,1.00000,1,  100.0,  9999.000, -9999.000,   1,1.0000
   243,'1 ',   300.000,    -3.804,   175.000,  -130.000,1.03500,     0,   330.055,   0.00000,   0.23000,   0.00000,   0.00000,1.00000,1,  100.0,  9999.000, -9999.000,   1,1.0000
   253,'1 ',    39.900,    12.546,    22.000,    -8.500,1.03000,     0,    45.959,   0.00000,   0.23000,   0.00000,   0.00000,1.00000,1,  100.0,  9999.000, -9999.000,   1,1.0000
   265,'1 ',    25.900,    18.000,    18.000,    -6.000,1.03000,     0,    34.695,   0.00000,   0.23000,   0.00000,   0.00000,1.00000,1,  100.0,  9999.000, -9999.000,   1,1.0000
   271,'1 ',   443.000,    32.702,   229.000,  -110.000,1.03000,     0,   488.471,   0.00000,   0.23000,   0.00000,   0.00000,1.00000,1,  100.0,  9999.000, -9999.000,   1,1.0000
   272,'1 ',     2.000,     0.700,     0.700,     0.000,1.00000,     0,     2.331,   0.00000,   0.23000,   0.00000,   0.00000,1.00000,1,  100.0,  9999.000, -9999.000,   1,1.0000
   274,'1 ',    15.500,    31.309,    40.000,   -12.000,1.00000,     0,    38.417,   0.00000,   0.23000,   0.00000,   0.00000,1.00000,1,  100.0,  9999.000, -9999.000,   1,1.0000
   277,'1 ',    20.000,     9.000,     9.000,    -3.000,1.02900,     0,    24.125,   0.00000,   0.23000,   0.00000,   0.00000,1.00000,1,  100.0,  9999.000, -9999.000,   1,1.0000
   281,'1 ',     9.400,     6.000,     6.000,    -1.600,1.01500,     0,    12.267,   0.00000,   0.23000,   0.00000,   0.00000,1.00000,1,  100.0,  9999.000, -9999.000,   1,1.0000
   283,'1 ',     0.100,     0.000,     0.000,     0.000,0.97440,     0,     0.110,   0.00000,   0.23000,   0.00000,   0.00000,1.00000,1,  100.0,  9999.000, -9999.000,   1,1.0000
   289,'1 ',    22.000,     3.000,     3.000,     3.000,1.03230,     0,    24.424,   0.00000,   0.23000,   0.00000,   0.00000,1.00000,1,  100.0,  9999.000, -9999.000,   1,1.0000
   294,'1 ',   557.000,    54.782,   200.000,   -85.000,1.01000,     0,   615.651,   0.00000,   0.23000,   0.00000,   0.00000,1.00000,1,  100.0,  9999.000, -9999.000,   1,1.0000
   295,'1 ',    34.000,     3.000,     3.000,     3.000,1.03010,     0,    37.545,   0.00000,   0.23000,   0.00000,   0.00000,1.00000,1,  100.0,  9999.000, -9999.000,   1,1.0000
   297,'1 ',    45.000,     5.000,     5.000,     5.000,1.02720,     0,    49.805,   0.00000,   0.23000,   0.00000,   0.00000,1.00000,1,  100.0,  9999.000, -9999.000,   1,1.0000
   298,'1 ',    10.600,     2.000,     2.000,     2.000,1.03630,     0,    11.866,   0.00000,   0.23000,   0.00000,   0.00000,1.00000,1,  100.0,  9999.000, -9999.000,   1,1.0000
   299,'1 ',    25.000,     0.000,     0.000,     0.000,1.04360,     0,    27.500,   0.00000,   0.23000,   0.00000,   0.00000,1.00000,1,  100.0,  9999.000, -9999.000,   1,1.0000
   303,'1 ',  1040.000,    -2.904,   200.000,  -170.000,1.02000,     0,  1144.010,   0.00000,   0.23000,   0.00000,   0.00000,1.00000,1,  100.0,  9999.000, -9999.000,   1,1.0000
   314,'1 ',   540.000,    82.869,   150.000,  -175.000,1.01000,     0,   600.948,   0.00000,   0.23000,   0.00000,   0.00000,1.00000,1,  100.0,  9999.000, -9999.000,   1,1.0000
   327,'1 ',   179.000,    -3.848,   150.000,  -100.000,1.04300,     0,   196.946,   0.00000,   0.23000,   0.00000,   0.00000,1.00000,1,  100.0,  9999.000, -9999.000,   1,1.0000
   332,'1 ',     8.000,     4.000,     4.000,     4.000,1.01490,     0,     9.839,   0.00000,   0.23000,   0.00000,   0.00000,1.00000,1,  100.0,  9999.000, -9999.000,   1,1.0000
   338,'1 ',   261.000,    79.515,    80.000,   -60.000,1.04300,     0,   300.065,   0.00000,   0.23000,   0.00000,   0.00000,1.00000,1,  100.0,  9999.000, -9999.000,   1,1.0000
   346,'1 ',    18.000,     0.000,     0.000,     0.000,1.04180,     0,    19.800,   0.00000,   0.23000,   0.00000,   0.00000,1.00000,1,  100.0,  9999.000, -9999.000,   1,1.0000
   353,'1 ',   227.000,    46.726,    60.000,   -30.000,1.04300,     0,   254.927,   0.00000,   0.23000,   0.00000,   0.00000,1.00000,1,  100.0,  9999.000, -9999.000,   1,1.0000
   358,'1 ',     2.900,     1.200,     1.200,     1.200,0.98570,     0,     3.452,   0.00000,   0.23000,   0.00000,   0.00000,1.00000,1,  100.0,  9999.000, -9999.000,   1,1.0000
   360,'1 ',     2.900,     1.200,     1.200,     1.200,1.01340,     0,     3.452,   0.00000,   0.23000,   0.00000,   0.00000,1.00000,1,  100.0,  9999.000, -9999.000,   1,1.0000
   376,'1 ',     4.000,     0.000,     0.000,     0.000,1.03990,     0,     4.400,   0.00000,   0.23000,   0.00000,   0.00000,1.00000,1,  100.0,  9999.000, -9999.000,   1,1.0000
   396,'1 ',     0.000,     0.100,     0.100,    -0.100,1.03000,     0,     0.110,   0.00000,   0.23000,   0.00000,   0.00000,1.00000,1,  100.0,  9999.000, -9999.000,   1,1.0000
   398,'1 ',   158.000,   -79.000,    79.000,   -79.000,1.03000,     0,   194.314,   0.00000,   0.23000,   0.00000,   0.00000,1.00000,1,  100.0,  9999.000, -9999.000,   1,1.0000
   410,'1 ',     5.000,     2.500,     2.500,     2.500,1.03190,     0,     6.149,   0.00000,   0.23000,   0.00000,   0.00000,1.00000,1,  100.0,  9999.000, -9999.000,   1,1.0000
   417,'1 ',    10.000,     0.000,     0.000,     0.000,0.98960,     0,    11.000,   0.00000,   0.23000,   0.00000,   0.00000,1.00000,1,  100.0,  9999.000, -9999.000,   1,1.0000
   418,'1 ',     3.500,     3.000,     3.000,     3.000,0.98870,     0,     5.071,   0.00000,   0.23000,   0.00000,   0.00000,1.00000,1,  100.0,  9999.000, -9999.000,   1,1.0000
   419,'1 ',     3.000,    11.100,    11.100,     1.500,1.01500,     0,    12.648,   0.00000,   0.23000,   0.00000,   0.00000,1.00000,1,  100.0,  9999.000, -9999.000,   1,1.0000
   421,'1 ',     0.000,     0.000,    14.000,     0.000,1.01800,     0,    14.000,   0.00000,   0.23000,   0.00000,   0.00000,1.00000,1,  100.0,  9999.000, -9999.000,   1,1.0000
   425,'1 ',   120.000,     0.562,    40.000,   -20.000,1.05000,     0,   132.001,   0.00000,   0.23000,   0.00000,   0.00000,1.00000,1,  100.0,  9999.000, -9999.000,   1,1.0000
   426,'1 ',    41.500,     8.041,    33.000,     0.000,1.01000,     0,    46.497,   0.00000,   0.23000,   0.00000,   0.00000,1.00000,1,  100.0,  9999.000, -9999.000,   1,1.0000
   427,'1 ',     2.500,     1.500,     1.500,     1.500,1.00750,     0,     3.207,   0.00000,   0.23000,   0.00000,   0.00000,1.00000,1,  100.0,  9999.000, -9999.000,   1,1.0000
   429,'1 ',     0.000,     0.000,     9.000,     0.000,1.03300,     0,     9.000,   0.00000,   0.23000,   0.00000,   0.00000,1.00000,1,  100.0,  9999.000, -9999.000,   1,1.0000
   430,'1 ',     0.000,    11.680,    14.400,     0.000,1.02400,     0,    12.832,   0.00000,   0.23000,   0.00000,   0.00000,1.00000,1,  100.0,  9999.000, -9999.000,   1,1.0000
   433,'1 ',    23.500,    22.735,    35.000,     0.000,1.01000,     0,    35.960,   0.00000,   0.23000,   0.00000,   0.00000,1.00000,1,  100.0,  9999.000, -9999.000,   1,1.0000
   434,'1 ',     7.000,     3.500,     3.500,     3.500,1.01470,     0,     8.609,   0.00000,   0.23000,   0.00000,   0.00000,1.00000,1,  100.0,  9999.000, -9999.000,   1,1.0000
   440,'1 ',     4.000,     8.700,     8.700,     8.700,1.00620,     0,    10.533,   0.00000,   0.23000,   0.00000,   0.00000,1.00000,1,  100.0,  9999.000, -9999.000,   1,1.0000
   444,'1 ',    -7.000,    -1.000,    -1.000,    -1.000,1.00890,     0,     7.778,   0.00000,   0.23000,   0.00000,   0.00000,1.00000,1,  100.0,  9999.000, -9999.000,   1,1.0000
   445,'1 ',   100.000,   -16.998,    50.000,   -20.000,1.01500,     0,   111.579,   0.00000,   0.23000,   0.00000,   0.00000,1.00000,1,  100.0,  9999.000, -9999.000,   1,1.0000
   448,'1 ',   320.000,    48.181,   160.000,   -80.000,1.05000,     0,   355.964,   0.00000,   0.23000,   0.00000,   0.00000,1.00000,1,  100.0,  9999.000, -9999.000,   1,1.0000
   449,'1 ',     5.000,     5.000,     5.000,     5.000,1.00270,     0,     7.778,   0.00000,   0.23000,   0.00000,   0.00000,1.00000,1,  100.0,  9999.000, -9999.000,   1,1.0000
   452,'1 ',     3.500,     0.000,     3.000,     0.000,1.03000,     0,     3.850,   0.00000,   0.23000,   0.00000,   0.00000,1.00000,1,  100.0,  9999.000, -9999.000,   1,1.0000
   454,'1 ',     6.000,     0.000,     5.000,     0.000,1.03000,     0,     6.600,   0.00000,   0.23000,   0.00000,   0.00000,1.00000,1,  100.0,  9999.000, -9999.000,   1,1.0000
   455,'1 ',    12.000,     4.934,     9.400,     0.000,1.03000,     0,    14.212,   0.00000,   0.23000,   0.00000,   0.00000,1.00000,1,  100.0,  9999.000, -9999.000,   1,1.0000
   456,'1 ',     0.000,     0.000,     0.100,     0.000,1.03000,     0,     0.100,   0.00000,   0.23000,   0.00000,   0.00000,1.00000,1,  100.0,  9999.000, -9999.000,   1,1.0000
   457,'1 ',     8.000,     0.000,     5.600,     0.000,1.03000,     0,     8.800,   0.00000,   0.23000,   0.00000,   0.00000,1.00000,1,  100.0,  9999.000, -9999.000,   1,1.0000
   459,'1 ',   207.200,   180.000,   180.000,  -126.000,1.04300,     0,   301.913,   0.00000,   0.23000,   0.00000,   0.00000,1.00000,1,  100.0,  9999.000, -9999.000,   1,1.0000
   460,'1 ',   455.000,    23.174,   288.000,  -144.000,1.02900,     0,   501.145,   0.00000,   0.23000,   0.00000,   0.00000,1.00000,1,  100.0,  9999.000, -9999.000,   1,1.0000
   462,'1 ',   170.000,    -3.615,   154.000,   -20.000,1.04300,     0,   187.042,   0.00000,   0.23000,   0.00000,   0.00000,1.00000,1,  100.0,  9999.000, -9999.000,   1,1.0000
   463,'1 ',   250.000,    59.490,   200.000,     0.000,1.02400,     0,   282.675,   0.00000,   0.23000,   0.00000,   0.00000,1.00000,1,  100.0,  9999.000, -9999.000,   1,1.0000
   471,'1 ',   236.000,    80.651,   157.000,   -20.000,1.01600,     0,   274.339,   0.00000,   0.23000,   0.00000,   0.00000,1.00000,1,  100.0,  9999.000, -9999.000,   1,1.0000
   479,'1 ',   447.000,    29.093,   260.000,  -100.000,1.02400,     0,   492.740,   0.00000,   0.23000,   0.00000,   0.00000,1.00000,1,  100.0,  9999.000, -9999.000,   1,1.0000
   488,'1 ',    99.000,     2.856,    76.000,     0.000,1.01200,     0,   108.945,   0.00000,   0.23000,   0.00000,   0.00000,1.00000,1,  100.0,  9999.000, -9999.000,   1,1.0000
   498,'1 ',     0.000,    18.554,    30.000,     0.000,1.00000,     0,    20.408,   0.00000,   0.23000,   0.00000,   0.00000,1.00000,1,  100.0,  9999.000, -9999.000,   1,1.0000
   507,'1 ',     0.000,    15.000,    15.000,     0.000,1.00000,     0,    16.500,   0.00000,   0.23000,   0.00000,   0.00000,1.00000,1,  100.0,  9999.000, -9999.000,   1,1.0000
   522,'1 ',     0.000,     0.000,    30.000,     0.000,1.00000,     0,    30.000,   0.00000,   0.23000,   0.00000,   0.00000,1.00000,1,  100.0,  9999.000, -9999.000,   1,1.0000
   525,'1 ',     0.000,    17.431,    30.000,     0.000,1.00000,     0,    19.173,   0.00000,   0.23000,   0.00000,   0.00000,1.00000,1,  100.0,  9999.000, -9999.000,   1,1.0000
   526,'1 ',   107.000,   130.000,   130.000,   130.000,1.03510,     0,   185.209,   0.00000,   0.23000,   0.00000,   0.00000,1.00000,1,  100.0,  9999.000, -9999.000,   1,1.0000
   539,'1 ',   232.000,    79.283,   150.000,     0.000,1.04700,     0,   269.690,   0.00000,   0.23000,   0.00000,   0.00000,1.00000,1,  100.0,  9999.000, -9999.000,   1,1.0000
   540,'1 ',   741.000,   217.886,   410.000,     0.000,1.04700,     0,   849.604,   0.00000,   0.23000,   0.00000,   0.00000,1.00000,1,  100.0,  9999.000, -9999.000,   1,1.0000
...